# Generated by soilflow_pflotran.py --mode _test --test transient_uniform_storage_vg
# Horizontal no-flow domain with a spatially uniform source/sink RATE LIST.

SIMULATION
  SIMULATION_TYPE SUBSURFACE
  PROCESS_MODELS
    SUBSURFACE_FLOW flow
      MODE RICHARDS
    /
  /
END

SUBSURFACE

GRID
  TYPE structured
  ORIGIN 0.d0 0.d0 0.d0
  NXYZ 10 1 1
  DXYZ
    1.000000000000d-01
    1.000000000000d+00
    2.000000000000d-01
  /
END

MATERIAL_PROPERTY soil
  ID 1
  POROSITY 4.300000000000d-01
  TORTUOSITY 1.d0
  CHARACTERISTIC_CURVES cc_vg
  PERMEABILITY
    PERM_X 4.551391321717d-13
    PERM_Y 4.551391321717d-13
    PERM_Z 4.551391321717d-13
  /
/

CHARACTERISTIC_CURVES cc_vg
  SATURATION_FUNCTION VAN_GENUCHTEN
    LIQUID_RESIDUAL_SATURATION 1.046511627907d-01
    M 3.589743589744d-01
    ALPHA 3.682024440041d-04
  /
  PERMEABILITY_FUNCTION MUALEM_VG_LIQ
    LIQUID_RESIDUAL_SATURATION 1.046511627907d-01
    M 3.589743589744d-01
  /
/

OUTPUT
  TIME_UNITS day
  SNAPSHOT_FILE
    FORMAT TECPLOT POINT
    PERIODIC TIMESTEP 10
    VARIABLES
      LIQUID_PRESSURE
      LIQUID_SATURATION
      LIQUID_HEAD
      LIQUID_RELATIVE_PERMEABILITY
      POROSITY
      PERMEABILITY
      MATERIAL_ID
    /
  /
  MASS_BALANCE_FILE
    PERIODIC TIMESTEP 1
  /
  CONSERVATION_FILE
    PERIODIC TIMESTEP 1
  /
  VELOCITY_AT_CENTER
  SCREEN PERIODIC 1
/

TIME
  FINAL_TIME 1.000000000000d+00 d
  MAXIMUM_TIMESTEP_SIZE 1.000000000000d-03 d
/

REGION all
  COORDINATES
    0.d0 0.d0 0.d0
    1.000000000000d+00 1.000000000000d+00 2.000000000000d-01
  /
END

FLOW_CONDITION initial
  TYPE
    LIQUID_PRESSURE DIRICHLET
  /
  LIQUID_PRESSURE 9.276312865954d+04
END

FLOW_CONDITION uniform_storage_rate
  TYPE
    RATE SCALED_VOLUMETRIC_RATE VOLUME
  /
  SYNC_TIMESTEP_WITH_UPDATE
  RATE LIST
    TIME_UNITS day
    DATA_UNITS m^3/day
        0.d0 0.d0
        1.000000000000d-02 1.357164175894d-03
        2.000000000000d-02 2.708972244816d-03
        3.000000000000d-02 4.050089237899d-03
        4.000000000000d-02 5.375222379070d-03
        5.000000000000d-02 6.679141973216d-03
        6.000000000000d-02 7.956702045403d-03
        7.000000000000d-02 9.202860649689d-03
        8.000000000000d-02 1.041269976738d-02
        9.000000000000d-02 1.158144471619d-02
        1.000000000000d-01 1.270448299377d-02
        1.100000000000d-01 1.377738248110d-02
        1.200000000000d-01 1.479590893407d-02
        1.300000000000d-01 1.575604269408d-02
        1.400000000000d-01 1.665399455183d-02
        1.500000000000d-01 1.748622070156d-02
        1.600000000000d-01 1.824943672689d-02
        1.700000000000d-01 1.894063056282d-02
        1.800000000000d-01 1.955707438308d-02
        1.900000000000d-01 2.009633536552d-02
        2.000000000000d-01 2.055628529342d-02
        2.100000000000d-01 2.093510895454d-02
        2.200000000000d-01 2.123131130496d-02
        2.300000000000d-01 2.144372336932d-02
        2.400000000000d-01 2.157150685424d-02
        2.500000000000d-01 2.161415745670d-02
        2.600000000000d-01 2.157150685424d-02
        2.700000000000d-01 2.144372336932d-02
        2.800000000000d-01 2.123131130496d-02
        2.900000000000d-01 2.093510895454d-02
        3.000000000000d-01 2.055628529342d-02
        3.100000000000d-01 2.009633536552d-02
        3.200000000000d-01 1.955707438308d-02
        3.300000000000d-01 1.894063056282d-02
        3.400000000000d-01 1.824943672689d-02
        3.500000000000d-01 1.748622070156d-02
        3.600000000000d-01 1.665399455183d-02
        3.700000000000d-01 1.575604269408d-02
        3.800000000000d-01 1.479590893407d-02
        3.900000000000d-01 1.377738248110d-02
        4.000000000000d-01 1.270448299377d-02
        4.100000000000d-01 1.158144471619d-02
        4.200000000000d-01 1.041269976738d-02
        4.300000000000d-01 9.202860649689d-03
        4.400000000000d-01 7.956702045403d-03
        4.500000000000d-01 6.679141973216d-03
        4.600000000000d-01 5.375222379070d-03
        4.700000000000d-01 4.050089237899d-03
        4.800000000000d-01 2.708972244816d-03
        4.900000000000d-01 1.357164175894d-03
        5.000000000000d-01 2.646970874561d-18
        5.100000000000d-01 -1.357164175894d-03
        5.200000000000d-01 -2.708972244816d-03
        5.300000000000d-01 -4.050089237899d-03
        5.400000000000d-01 -5.375222379070d-03
        5.500000000000d-01 -6.679141973216d-03
        5.600000000000d-01 -7.956702045403d-03
        5.700000000000d-01 -9.202860649689d-03
        5.800000000000d-01 -1.041269976738d-02
        5.900000000000d-01 -1.158144471619d-02
        6.000000000000d-01 -1.270448299377d-02
        6.100000000000d-01 -1.377738248110d-02
        6.200000000000d-01 -1.479590893407d-02
        6.300000000000d-01 -1.575604269408d-02
        6.400000000000d-01 -1.665399455183d-02
        6.500000000000d-01 -1.748622070156d-02
        6.600000000000d-01 -1.824943672689d-02
        6.700000000000d-01 -1.894063056282d-02
        6.800000000000d-01 -1.955707438308d-02
        6.900000000000d-01 -2.009633536552d-02
        7.000000000000d-01 -2.055628529342d-02
        7.100000000000d-01 -2.093510895454d-02
        7.200000000000d-01 -2.123131130496d-02
        7.300000000000d-01 -2.144372336932d-02
        7.400000000000d-01 -2.157150685424d-02
        7.500000000000d-01 -2.161415745670d-02
        7.600000000000d-01 -2.157150685424d-02
        7.700000000000d-01 -2.144372336932d-02
        7.800000000000d-01 -2.123131130496d-02
        7.900000000000d-01 -2.093510895454d-02
        8.000000000000d-01 -2.055628529342d-02
        8.100000000000d-01 -2.009633536552d-02
        8.200000000000d-01 -1.955707438308d-02
        8.300000000000d-01 -1.894063056282d-02
        8.400000000000d-01 -1.824943672689d-02
        8.500000000000d-01 -1.748622070156d-02
        8.600000000000d-01 -1.665399455183d-02
        8.700000000000d-01 -1.575604269408d-02
        8.800000000000d-01 -1.479590893407d-02
        8.900000000000d-01 -1.377738248110d-02
        9.000000000000d-01 -1.270448299377d-02
        9.100000000000d-01 -1.158144471619d-02
        9.200000000000d-01 -1.041269976738d-02
        9.300000000000d-01 -9.202860649689d-03
        9.400000000000d-01 -7.956702045403d-03
        9.500000000000d-01 -6.679141973216d-03
        9.600000000000d-01 -5.375222379070d-03
        9.700000000000d-01 -4.050089237899d-03
        9.800000000000d-01 -2.708972244816d-03
        9.900000000000d-01 -1.357164175894d-03
        1.000000000000d+00 -5.293941749122d-18
  /
END

INITIAL_CONDITION
  FLOW_CONDITION initial
  REGION all
END

SOURCE_SINK uniform_storage
  FLOW_CONDITION uniform_storage_rate
  REGION all
/

# Границы не назначены: PFLOTRAN применяет no-flow по умолчанию.
STRATA
  REGION all
  MATERIAL soil
END

END_SUBSURFACE
