# Generated by soilflow_pflotran.py --mode _test --test unit_gradient_unsat
SIMULATION
  SIMULATION_TYPE SUBSURFACE
  PROCESS_MODELS
    SUBSURFACE_FLOW flow
      MODE RICHARDS
    /
  /
END

SUBSURFACE

GRID
  TYPE structured
  ORIGIN 0.d0 0.d0 0.d0
  NXYZ 1 1 80
  DXYZ
    1.000000000000d+00
    1.000000000000d+00
    2.500000000000d-02
  /
END

MATERIAL_PROPERTY soil
  ID 1
  POROSITY 4.300000000000d-01
  TORTUOSITY 1.d0
  CHARACTERISTIC_CURVES cc_vg
  PERMEABILITY
    PERM_X 4.551391321717d-13
    PERM_Y 4.551391321717d-13
    PERM_Z 4.551391321717d-13
  /
/

CHARACTERISTIC_CURVES cc_vg
  SATURATION_FUNCTION VAN_GENUCHTEN
    LIQUID_RESIDUAL_SATURATION 1.046511627907d-01
    M 3.589743589744d-01
    ALPHA 3.682024440041d-04
  /
  PERMEABILITY_FUNCTION MUALEM_VG_LIQ
    LIQUID_RESIDUAL_SATURATION 1.046511627907d-01
    M 3.589743589744d-01
  /
/

OUTPUT
  TIME_UNITS day
  SNAPSHOT_FILE
    FORMAT TECPLOT POINT
    PERIODIC TIMESTEP 1
    VARIABLES
      LIQUID_PRESSURE
      LIQUID_SATURATION
      LIQUID_HEAD
      LIQUID_RELATIVE_PERMEABILITY
      POROSITY
      PERMEABILITY
      MATERIAL_ID
    /
  /
  MASS_BALANCE_FILE
    PERIODIC TIMESTEP 1
  /
  CONSERVATION_FILE
    PERIODIC TIMESTEP 1
  /
  VELOCITY_AT_CENTER
  SCREEN PERIODIC 1
/

TIME
  FINAL_TIME 3.000000000000d+00 d
  MAXIMUM_TIMESTEP_SIZE 1.d-1 d
/

REGION all
  COORDINATES
    0.d0 0.d0 0.d0
    1.000000000000d+00 1.000000000000d+00 2.000000000000d+00
  /
END

REGION top
  COORDINATES
    0.d0 0.d0 2.000000000000d+00
    1.000000000000d+00 1.000000000000d+00 2.000000000000d+00
  /
  FACE TOP
END

REGION bottom
  COORDINATES
    0.d0 0.d0 0.d0
    1.000000000000d+00 1.000000000000d+00 0.d0
  /
  FACE BOTTOM
END

FLOW_CONDITION initial
  TYPE
    LIQUID_PRESSURE DIRICHLET
  /
  LIQUID_PRESSURE 9.000000000000d+04
END

FLOW_CONDITION constant_pressure
  TYPE
    LIQUID_PRESSURE DIRICHLET
  /
  LIQUID_PRESSURE 9.000000000000d+04
END

INITIAL_CONDITION
  FLOW_CONDITION initial
  REGION all
END

BOUNDARY_CONDITION top_pressure_bc
  FLOW_CONDITION constant_pressure
  REGION top
END

BOUNDARY_CONDITION bottom_pressure_bc
  FLOW_CONDITION constant_pressure
  REGION bottom
END

STRATA
  REGION all
  MATERIAL soil
END

END_SUBSURFACE
